Version 4
SHEET 1 1332 1192
WIRE 240 304 48 304
WIRE 288 304 240 304
WIRE 432 304 368 304
WIRE 560 304 512 304
WIRE 704 304 560 304
WIRE 880 304 768 304
WIRE 1040 304 880 304
WIRE 560 368 560 304
WIRE 48 384 48 304
WIRE 240 384 240 304
WIRE 880 384 880 304
WIRE 1040 384 1040 304
WIRE 512 448 416 448
WIRE 560 528 560 464
WIRE 560 528 416 528
WIRE 48 544 48 464
WIRE 240 544 240 448
WIRE 240 544 48 544
WIRE 560 544 560 528
WIRE 560 544 240 544
WIRE 880 544 880 448
WIRE 880 544 560 544
WIRE 1040 544 1040 464
WIRE 1040 544 880 544
WIRE 1040 560 1040 544
WIRE 560 640 544 640
WIRE 576 640 560 640
WIRE 128 656 112 656
WIRE 144 656 128 656
WIRE 256 656 240 656
WIRE 272 656 256 656
WIRE 560 720 560 640
WIRE 944 736 592 736
WIRE 960 736 944 736
WIRE 528 752 416 752
WIRE 960 752 960 736
WIRE 128 768 128 656
WIRE 256 768 256 656
WIRE 672 768 592 768
WIRE 688 768 672 768
WIRE 560 800 560 784
WIRE 688 800 688 768
WIRE 960 848 960 832
WIRE 128 880 128 848
WIRE 192 880 128 880
WIRE 256 880 256 848
WIRE 256 880 192 880
WIRE 192 896 192 880
WIRE 688 896 688 880
FLAG 1040 560 0
FLAG 560 800 0
FLAG 688 896 0
FLAG 960 848 0
FLAG 416 752 d
FLAG 192 896 0
FLAG 944 736 vc
FLAG 672 768 vst
FLAG 560 640 P5V
FLAG 128 656 P5V
FLAG 256 656 N5V
FLAG 48 304 V_in
FLAG 1040 304 V_out
SYMBOL voltage 48 368 R0
SYMATTR InstName V1
SYMATTR Value 15
SYMBOL schottky 704 320 R270
WINDOW 0 32 32 VTop 2
WINDOW 3 0 32 VBottom 2
SYMATTR InstName D1
SYMATTR Value 1N5819
SYMATTR Description Diode
SYMATTR Type diode
SYMBOL ind 272 320 R270
WINDOW 0 32 56 VTop 2
WINDOW 3 5 56 VBottom 2
SYMATTR InstName L1
SYMATTR Value 126.79u
SYMBOL res 1024 368 R0
SYMATTR InstName R1
SYMATTR Value 1.56
SYMBOL cap 864 384 R0
SYMATTR InstName C1
SYMATTR Value 100µ
SYMBOL cap 224 384 R0
SYMATTR InstName C2
SYMATTR Value 47µ
SYMBOL voltage 688 784 R0
SYMATTR InstName V2
SYMATTR Value PULSE(0 1 0 0.5u 0.5u 16u 20u)
SYMBOL voltage 256 752 R0
SYMATTR InstName V3
SYMATTR Value -5
SYMBOL voltage 128 752 R0
SYMATTR InstName V4
SYMATTR Value 5
SYMBOL voltage 960 736 R0
SYMATTR InstName V5
SYMATTR Value 0.8
SYMBOL Ideal_Comparator 560 688 M0
SYMATTR InstName U2
SYMBOL nmos 512 368 R0
SYMATTR InstName M2
SYMATTR Value IRFS4010
SYMBOL bv 416 432 R0
WINDOW 0 35 35 Left 2
WINDOW 3 32 81 Left 2
SYMATTR InstName B1
SYMATTR Value V=2*V(d)
SYMBOL res 528 288 R90
WINDOW 0 0 56 VBottom 2
WINDOW 3 32 56 VTop 2
SYMATTR InstName ESR
SYMATTR Value 1.56m
TEXT 48 184 Left 2 ;Boost converter\nV_in=15V\nV_out=18V
TEXT 320 208 Left 2 !.tran 0 5m 0 0.1u startup
